2024_89_CemigReconfigurationCases/1_AlimsCemig/BHPM25/BHPM25CargaBT_Dez.dss
new load.3001582733M1 bus1=RML1054969889.1.2.3.0,Phases=3,kv=0.22,kW=1.22992,pf=0.92,Vminpu=0.92,Vmaxpu=1.5,model=1,daily=RES4_11,status=variable
new load.3001582734M1 bus1=RML1054969889.1.2.3.0,Phases=3,kv=0.22,kW=1.31418,pf=0.92,Vminpu=0.92,Vmaxpu=1.5,model=1,daily=RES2_7,status=variable
new load.3001582736M1 bus1=RML1054969875.1.3.0,Phases=2,kv=0.22,kW=0.36444,pf=0.92,Vminpu=0.92,Vmaxpu=1.5,model=1,daily=RES1_7,status=variable
new load.3001582737M1 bus1=RML1054969875.1.3.0,Phases=2,kv=0.22,kW=1.89242,pf=0.92,Vminpu=0.92,Vmaxpu=1.5,model=1,daily=RES3_8,status=variable
new load.3001582740M1 bus1=RML1054969819.1.2.3.0,Phases=3,kv=0.22,kW=2.46722,pf=0.92,Vminpu=0.92,Vmaxpu=1.5,model=1,daily=COM2_10,status=variable
new load.3001582742M1 bus1=RML1054969805.1.3.0,Phases=2,kv=0.22,kW=1.27268,pf=0.92,Vminpu=0.92,Vmaxpu=1.5,model=1,daily=RES3_8,status=variable
new load.3001582743M1 bus1=RML1054969784.2.3.0,Phases=2,kv=0.22,kW=2.68924,pf=0.92,Vminpu=0.92,Vmaxpu=1.5,model=1,daily=RES3_8,status=variable
new load.3001582744M1 bus1=RML1055003811.1.2.3.0,Phases=3,kv=0.22,kW=0.1577,pf=0.92,Vminpu=0.92,Vmaxpu=1.5,model=1,daily=RES2_7,status=variable
new load.3001582745M1 bus1=RML1055003776.1.2.0,Phases=2,kv=0.22,kW=2.0363,pf=0.92,Vminpu=0.92,Vmaxpu=1.5,model=1,daily=RES3_8,status=variable
new load.3001582747M1 bus1=RML1055003762.1.2.3.0,Phases=3,kv=0.22,kW=2.08056,pf=0.92,Vminpu=0.92,Vmaxpu=1.5,model=1,daily=RES3_8,status=variable
new load.3001582748M1 bus1=RML1055003762.1.2.3.0,Phases=3,kv=0.22,kW=2.2623,pf=0.92,Vminpu=0.92,Vmaxpu=1.5,model=1,daily=RES4_11,status=variable
new load.3001582749M1 bus1=RML1055003762.1.2.3.0,Phases=3,kv=0.22,kW=0.8561,pf=0.92,Vminpu=0.92,Vmaxpu=1.5,model=1,daily=RES2_7,status=variable
new load.3001582750M1 bus1=RML1055003797.1.2.3.0,Phases=3,kv=0.22,kW=0.29502,pf=0.92,Vminpu=0.92,Vmaxpu=1.5,model=1,daily=RES1_7,status=variable
new load.3001582751M1 bus1=RML1054969763.1.2.0,Phases=2,kv=0.22,kW=2.57856,pf=0.92,Vminpu=0.92,Vmaxpu=1.5,model=1,daily=RES3_8,status=variable
new load.3001582752M1 bus1=RML1054969770.1.2.0,Phases=2,kv=0.22,kW=1.96988,pf=0.92,Vminpu=0.92,Vmaxpu=1.5,model=1,daily=RES3_8,status=variable
new load.3001582753M1 bus1=RML1054969777.2.3.0,Phases=2,kv=0.22,kW=0.18508,pf=0.92,Vminpu=0.92,Vmaxpu=1.5,model=1,daily=RES5_9,status=variable
new load.3001582754M1 bus1=RML1054969791.1.3.0,Phases=2,kv=0.22,kW=0.6984,pf=0.92,Vminpu=0.92,Vmaxpu=1.5,model=1,daily=RES2_7,status=variable
new load.3001582755M1 bus1=RML1054969798.1.2.3.0,Phases=3,kv=0.22,kW=1.11832,pf=0.92,Vminpu=0.92,Vmaxpu=1.5,model=1,daily=RES5_9,status=variable
new load.3001582756M1 bus1=RML1054969868.1.3.0,Phases=2,kv=0.22,kW=0.68338,pf=0.92,Vminpu=0.92,Vmaxpu=1.5,model=1,daily=RES2_7,status=variable
new load.3001582757M1 bus1=RML1054969861.1.3.0,Phases=2,kv=0.22,kW=0.90718,pf=0.92,Vminpu=0.92,Vmaxpu=1.5,model=1,daily=RES5_9,status=variable
new load.3001582758M1 bus1=RML1054969854.2.3.0,Phases=2,kv=0.22,kW=1.66002,pf=0.92,Vminpu=0.92,Vmaxpu=1.5,model=1,daily=RES3_8,status=variable
new load.3001582759M1 bus1=RML1054969840.1.3.0,Phases=2,kv=0.22,kW=2.32402,pf=0.92,Vminpu=0.92,Vmaxpu=1.5,model=1,daily=RES3_8,status=variable
new load.3001582760M1 bus1=RML1054969833.1.2.0,Phases=2,kv=0.22,kW=1.82896,pf=0.92,Vminpu=0.92,Vmaxpu=1.5,model=1,daily=RES4_11,status=variable
new load.3001582761M1 bus1=RML1054969826.1.2.0,Phases=2,kv=0.22,kW=0.93118,pf=0.92,Vminpu=0.92,Vmaxpu=1.5,model=1,daily=RES2_7,status=variable
new load.3001582762M1 bus1=RML1054969812.1.2.0,Phases=2,kv=0.22,kW=1.85444,pf=0.92,Vminpu=0.92,Vmaxpu=1.5,model=1,daily=RES4_11,status=variable
new load.3001585455M1 bus1=RML1055129503.1.2.3.0,Phases=3,kv=0.22,kW=3.05554,pf=0.92,Vminpu=0.92,Vmaxpu=1.5,model=1,daily=IND2_11,status=variable
new load.3001585461M1 bus1=RML1055129559.1.2.3.0,Phases=3,kv=0.22,kW=1.37228,pf=0.92,Vminpu=0.92,Vmaxpu=1.5,model=1,daily=RES3_8,status=variable
new load.3001585462M1 bus1=RML1055129552.1.2.3.0,Phases=3,kv=0.22,kW=1.77068,pf=0.92,Vminpu=0.92,Vmaxpu=1.5,model=1,daily=RES3_8,status=variable
new load.3001585463M1 bus1=RML1055129517.1.2.0,Phases=2,kv=0.22,kW=2.7335,pf=0.92,Vminpu=0.92,Vmaxpu=1.5,model=1,daily=RES3_8,status=variable
new load.3001585464M1 bus1=RML1055129538.1.2.3.0,Phases=3,kv=0.22,kW=1.06636,pf=0.92,Vminpu=0.92,Vmaxpu=1.5,model=1,daily=RES2_7,status=variable
new load.3001585465M1 bus1=RML1055129538.1.2.3.0,Phases=3,kv=0.22,kW=1.72642,pf=0.92,Vminpu=0.92,Vmaxpu=1.5,model=1,daily=RES3_8,status=variable
new load.3001585467M1 bus1=RML1055129545.1.2.0,Phases=2,kv=0.22,kW=0.39914,pf=0.92,Vminpu=0.92,Vmaxpu=1.5,model=1,daily=RES1_7,status=variable
new load.3001585474M1 bus1=RML1055119052.1.0,Phases=1,kv=0.127,kW=1.12644,pf=0.92,Vminpu=0.92,Vmaxpu=1.5,model=1,daily=RES2_7,status=variable
new load.3001585476M1 bus1=RML1055119045.1.0,Phases=1,kv=0.127,kW=1.00628,pf=0.92,Vminpu=0.92,Vmaxpu=1.5,model=1,daily=RES2_7,status=variable
new load.3001585477M1 bus1=RML1055119045.1.0,Phases=1,kv=0.127,kW=1.15648,pf=0.92,Vminpu=0.92,Vmaxpu=1.5,model=1,daily=RES2_7,status=variable
new load.3001585478M1 bus1=RML1055158371.1.2.3.0,Phases=3,kv=0.22,kW=0.68784,pf=0.92,Vminpu=0.92,Vmaxpu=1.5,model=1,daily=COM1_12,status=variable
new load.3001585481M1 bus1=RML1055158343.2.0,Phases=1,kv=0.127,kW=0.781,pf=0.92,Vminpu=0.92,Vmaxpu=1.5,model=1,daily=RES2_7,status=variable
new load.3001585483M1 bus1=RML1055158329.1.2.3.0,Phases=3,kv=0.22,kW=2.29416,pf=0.92,Vminpu=0.92,Vmaxpu=1.5,model=1,daily=RES4_11,status=variable
new load.3001585486M1 bus1=RML1055158315.1.2.0,Phases=2,kv=0.22,kW=0.32974,pf=0.92,Vminpu=0.92,Vmaxpu=1.5,model=1,daily=RES1_7,status=variable
new load.3001585506M1 bus1=RML1055223954.1.2.3.0,Phases=3,kv=0.22,kW=0.00502,pf=0.92,Vminpu=0.92,Vmaxpu=1.5,model=1,daily=COM1_12,status=variable
new load.3001585507M1 bus1=RML1055223954.1.2.3.0,Phases=3,kv=0.22,kW=0.08536,pf=0.92,Vminpu=0.92,Vmaxpu=1.5,model=1,daily=COM1_12,status=variable
new load.3001582763M1 bus1=RML1054969749.2.3.0,Phases=2,kv=0.22,kW=0.85394,pf=0.92,Vminpu=0.92,Vmaxpu=1.5,model=1,daily=RES4_11,status=variable
new load.3001582764M1 bus1=RML1054969742.3.0,Phases=1,kv=0.127,kW=2.00308,pf=0.92,Vminpu=0.92,Vmaxpu=1.5,model=1,daily=RES3_8,status=variable
new load.3001582765M1 bus1=RML1054969728.1.2.0,Phases=2,kv=0.22,kW=0.7885,pf=0.92,Vminpu=0.92,Vmaxpu=1.5,model=1,daily=RES2_7,status=variable
new load.3001582766M1 bus1=RML1054969721.1.3.0,Phases=2,kv=0.22,kW=2.1667,pf=0.92,Vminpu=0.92,Vmaxpu=1.5,model=1,daily=RES4_11,status=variable
new load.3001582768M1 bus1=RML1054969882.1.2.3.0,Phases=3,kv=0.22,kW=1.82258,pf=0.92,Vminpu=0.92,Vmaxpu=1.5,model=1,daily=RES4_11,status=variable
new load.3001582771M1 bus1=RML1054923220.1.2.3.0,Phases=3,kv=0.22,kW=2.10816,pf=0.92,Vminpu=0.92,Vmaxpu=1.5,model=1,daily=COM2_10,status=variable
new load.3001582772M1 bus1=RML1054851120.1.2.3.0,Phases=3,kv=0.22,kW=1.52722,pf=0.92,Vminpu=0.92,Vmaxpu=1.5,model=1,daily=RES3_8,status=variable
new load.3001582774M1 bus1=RML1054851099.1.2.0,Phases=2,kv=0.22,kW=0.5938,pf=0.92,Vminpu=0.92,Vmaxpu=1.5,model=1,daily=RES6_10,status=variable
new load.3001582775M1 bus1=RML1054823855.1.2.3.0,Phases=3,kv=0.22,kW=1.6468,pf=0.92,Vminpu=0.92,Vmaxpu=1.5,model=1,daily=COM1_12,status=variable
new load.3001582776M1 bus1=RML1054843378.1.2.3.0,Phases=3,kv=0.22,kW=1.13988,pf=0.92,Vminpu=0.92,Vmaxpu=1.5,model=1,daily=RES3_8,status=variable
new load.3001582777M1 bus1=RML1054843385.1.2.3.0,Phases=3,kv=0.22,kW=1.48484,pf=0.92,Vminpu=0.92,Vmaxpu=1.5,model=1,daily=RES4_11,status=variable
new load.3001582778M1 bus1=RML1054843364.2.3.0,Phases=2,kv=0.22,kW=0.53318,pf=0.92,Vminpu=0.92,Vmaxpu=1.5,model=1,daily=RES2_7,status=variable
new load.3001582779M1 bus1=RML1054769598.1.3.0,Phases=2,kv=0.22,kW=1.91456,pf=0.92,Vminpu=0.92,Vmaxpu=1.5,model=1,daily=RES3_8,status=variable
new load.3001582780M1 bus1=RML1054769626.1.2.3.0,Phases=3,kv=0.22,kW=2.5011,pf=0.92,Vminpu=0.92,Vmaxpu=1.5,model=1,daily=RES3_8,status=variable
new load.3001582782M1 bus1=RML1054769626.1.2.3.0,Phases=3,kv=0.22,kW=1.23908,pf=0.92,Vminpu=0.92,Vmaxpu=1.5,model=1,daily=RES2_7,status=variable
new load.3001582785M1 bus1=RML1054769493.3.0,Phases=1,kv=0.127,kW=0.72842,pf=0.92,Vminpu=0.92,Vmaxpu=1.5,model=1,daily=RES2_7,status=variable
new load.3001582786M1 bus1=RML1054769605.1.2.3.0,Phases=3,kv=0.22,kW=1.84816,pf=0.92,Vminpu=0.92,Vmaxpu=1.5,model=1,daily=RES3_8,status=variable
new load.3001582787M1 bus1=RML1054769479.1.2.3.0,Phases=3,kv=0.22,kW=0.13054,pf=0.92,Vminpu=0.92,Vmaxpu=1.5,model=1,daily=COM1_12,status=variable
new load.3001582788M1 bus1=RML1054769535.2.3.0,Phases=2,kv=0.22,kW=1.81622,pf=0.92,Vminpu=0.92,Vmaxpu=1.5,model=1,daily=RES4_11,status=variable
new load.3001582789M1 bus1=RML1056266975.2.3.0,Phases=2,kv=0.22,kW=2.57856,pf=0.92,Vminpu=0.92,Vmaxpu=1.5,model=1,daily=RES3_8,status=variable
new load.3001582791M1 bus1=RML1054769584.1.2.0,Phases=2,kv=0.22,kW=2.1359,pf=0.92,Vminpu=0.92,Vmaxpu=1.5,model=1,daily=RES3_8,status=variable
new load.3001582792M1 bus1=RML1054769556.1.0,Phases=1,kv=0.127,kW=0.95372,pf=0.92,Vminpu=0.92,Vmaxpu=1.5,model=1,daily=RES2_7,status=variable
new load.3001582793M1 bus1=RML1055217024.2.0,Phases=1,kv=0.127,kW=2.65604,pf=0.92,Vminpu=0.92,Vmaxpu=1.5,model=1,daily=RES3_8,status=variable
new load.3001582794M1 bus1=RML1055217045.1.2.0,Phases=2,kv=0.22,kW=0.68338,pf=0.92,Vminpu=0.92,Vmaxpu=1.5,model=1,daily=RES2_7,status=variable
new load.3001582795M1 bus1=RML1055217045.1.2.0,Phases=2,kv=0.22,kW=1.15648,pf=0.92,Vminpu=0.92,Vmaxpu=1.5,model=1,daily=RES2_7,status=variable
new load.3001582796M1 bus1=RML1055217059.1.2.3.0,Phases=3,kv=0.22,kW=0.70736,pf=0.92,Vminpu=0.92,Vmaxpu=1.5,model=1,daily=RES4_11,status=variable
new load.3001582797M1 bus1=RML1055217038.1.2.3.0,Phases=3,kv=0.22,kW=1.41654,pf=0.92,Vminpu=0.92,Vmaxpu=1.5,model=1,daily=RES3_8,status=variable
new load.3001582798M1 bus1=RML1055217010.3.0,Phases=1,kv=0.127,kW=1.07922,pf=0.92,Vminpu=0.92,Vmaxpu=1.5,model=1,daily=RES5_9,status=variable
new load.3001582799M1 bus1=RML1055217052.1.2.3.0,Phases=3,kv=0.22,kW=0.95174,pf=0.92,Vminpu=0.92,Vmaxpu=1.5,model=1,daily=RES3_8,status=variable
new load.3001582802M1 bus1=RML1055217248.2.3.0,Phases=2,kv=0.22,kW=1.2616,pf=0.92,Vminpu=0.92,Vmaxpu=1.5,model=1,daily=RES2_7,status=variable
new load.3001582803M1 bus1=RML1055217248.2.3.0,Phases=2,kv=0.22,kW=0.31238,pf=0.92,Vminpu=0.92,Vmaxpu=1.5,model=1,daily=RES1_7,status=variable
new load.3001582805M1 bus1=RML1055217248.2.3.0,Phases=2,kv=0.22,kW=0.04338,pf=0.92,Vminpu=0.92,Vmaxpu=1.5,model=1,daily=RES1_7,status=variable
new load.3001582806M1 bus1=RML1055217241.1.2.3.0,Phases=3,kv=0.22,kW=2.21336,pf=0.92,Vminpu=0.92,Vmaxpu=1.5,model=1,daily=RES3_8,status=variable
new load.3001582807M1 bus1=RML1055217199.3.0,Phases=1,kv=0.127,kW=0.57824,pf=0.92,Vminpu=0.92,Vmaxpu=1.5,model=1,daily=RES2_7,status=variable
new load.3001582808M1 bus1=RML1055217178.3.0,Phases=1,kv=0.127,kW=0.73594,pf=0.92,Vminpu=0.92,Vmaxpu=1.5,model=1,daily=RES2_7,status=variable
new load.3001582809M1 bus1=RML1055217185.1.0,Phases=1,kv=0.127,kW=0.50328,pf=0.92,Vminpu=0.92,Vmaxpu=1.5,model=1,daily=RES1_7,status=variable
new load.3001582810M1 bus1=RML1055217220.3.0,Phases=1,kv=0.127,kW=0.7059,pf=0.92,Vminpu=0.92,Vmaxpu=1.5,model=1,daily=RES2_7,status=variable
new load.3001582811M1 bus1=RML1055217227.1.2.0,Phases=2,kv=0.22,kW=0.7134,pf=0.92,Vminpu=0.92,Vmaxpu=1.5,model=1,daily=RES2_7,status=variable
new load.3001582812M1 bus1=RML1055217234.1.0,Phases=1,kv=0.127,kW=1.26912,pf=0.92,Vminpu=0.92,Vmaxpu=1.5,model=1,daily=RES2_7,status=variable
new load.3001582813M1 bus1=RML1055217066.3.0,Phases=1,kv=0.127,kW=0.5293,pf=0.92,Vminpu=0.92,Vmaxpu=1.5,model=1,daily=RES1_7,status=variable
new load.3001582814M1 bus1=RML1055217157.2.0,Phases=1,kv=0.127,kW=0.56402,pf=0.92,Vminpu=0.92,Vmaxpu=1.5,model=1,daily=RES1_7,status=variable
new load.3001582816M1 bus1=RML1055217192.2.0,Phases=1,kv=0.127,kW=0.6308,pf=0.92,Vminpu=0.92,Vmaxpu=1.5,model=1,daily=RES2_7,status=variable
new load.3001582820M1 bus1=RML1055205614.1.2.0,Phases=2,kv=0.22,kW=0.781,pf=0.92,Vminpu=0.92,Vmaxpu=1.5,model=1,daily=RES2_7,status=variable
new load.3001582822M1 bus1=RML1055205628.1.2.0,Phases=2,kv=0.22,kW=0.45122,pf=0.92,Vminpu=0.92,Vmaxpu=1.5,model=1,daily=RES1_7,status=variable
new load.3001582823M1 bus1=RML1055205635.2.0,Phases=1,kv=0.127,kW=1.13394,pf=0.92,Vminpu=0.92,Vmaxpu=1.5,model=1,daily=RES2_7,status=variable
new load.3001582824M1 bus1=RML1055205733.1.2.0,Phases=2,kv=0.22,kW=1.12644,pf=0.92,Vminpu=0.92,Vmaxpu=1.5,model=1,daily=RES2_7,status=variable
new load.3001582825M1 bus1=RML1055205649.1.2.0,Phases=2,kv=0.22,kW=1.19402,pf=0.92,Vminpu=0.92,Vmaxpu=1.5,model=1,daily=RES2_7,status=variable
new load.3001582826M1 bus1=RML1055205607.2.0,Phases=1,kv=0.127,kW=2.84416,pf=0.92,Vminpu=0.92,Vmaxpu=1.5,model=1,daily=RES3_8,status=variable
new load.3001582828M1 bus1=RML1055205754.1.2.0,Phases=2,kv=0.22,kW=1.179,pf=0.92,Vminpu=0.92,Vmaxpu=1.5,model=1,daily=RES2_7,status=variable
new load.3001582831M1 bus1=RML1055205593.1.2.0,Phases=2,kv=0.22,kW=0.08678,pf=0.92,Vminpu=0.92,Vmaxpu=1.5,model=1,daily=RES1_7,status=variable
new load.3001582832M1 bus1=RML1055205824.1.2.0,Phases=2,kv=0.22,kW=0.69088,pf=0.92,Vminpu=0.92,Vmaxpu=1.5,model=1,daily=RES2_7,status=variable
new load.3001582836M1 bus1=RML1055205712.2.3.0,Phases=2,kv=0.22,kW=0.9462,pf=0.92,Vminpu=0.92,Vmaxpu=1.5,model=1,daily=RES2_7,status=variable
new load.3001582838M1 bus1=RML1055205691.2.0,Phases=1,kv=0.127,kW=0.78962,pf=0.92,Vminpu=0.92,Vmaxpu=1.5,model=1,daily=RES1_7,status=variable
new load.3001582839M1 bus1=RML1055205684.1.0,Phases=1,kv=0.127,kW=0.47724,pf=0.92,Vminpu=0.92,Vmaxpu=1.5,model=1,daily=RES1_7,status=variable
new load.3001582841M1 bus1=RML1055205796.1.3.0,Phases=2,kv=0.22,kW=1.46436,pf=0.92,Vminpu=0.92,Vmaxpu=1.5,model=1,daily=RES2_7,status=variable
new load.3001582842M1 bus1=RML1055205789.1.2.0,Phases=2,kv=0.22,kW=0.8561,pf=0.92,Vminpu=0.92,Vmaxpu=1.5,model=1,daily=RES2_7,status=variable
new load.3001582843M1 bus1=RML1055205775.1.2.0,Phases=2,kv=0.22,kW=0.59004,pf=0.92,Vminpu=0.92,Vmaxpu=1.5,model=1,daily=RES1_7,status=variable
new load.3001582844M1 bus1=RML1055205544.1.2.0,Phases=2,kv=0.22,kW=1.21656,pf=0.92,Vminpu=0.92,Vmaxpu=1.5,model=1,daily=RES2_7,status=variable
new load.3001582845M1 bus1=RML1055205670.3.0,Phases=1,kv=0.127,kW=0.79602,pf=0.92,Vminpu=0.92,Vmaxpu=1.5,model=1,daily=RES2_7,status=variable
new load.3001582847M1 bus1=RML1055205586.1.2.3.0,Phases=3,kv=0.22,kW=0.59326,pf=0.92,Vminpu=0.92,Vmaxpu=1.5,model=1,daily=RES2_7,status=variable
new load.3001582848M1 bus1=RML1055205831.2.3.0,Phases=2,kv=0.22,kW=0.96874,pf=0.92,Vminpu=0.92,Vmaxpu=1.5,model=1,daily=RES2_7,status=variable
new load.3001582849M1 bus1=RML1055172266.2.0,Phases=1,kv=0.127,kW=0.77348,pf=0.92,Vminpu=0.92,Vmaxpu=1.5,model=1,daily=RES2_7,status=variable
new load.3001582850M1 bus1=RML1055172273.1.0,Phases=1,kv=0.127,kW=1.38928,pf=0.92,Vminpu=0.92,Vmaxpu=1.5,model=1,daily=RES2_7,status=variable
new load.3001582851M1 bus1=RML1055172231.1.2.0,Phases=2,kv=0.22,kW=0.89364,pf=0.92,Vminpu=0.92,Vmaxpu=1.5,model=1,daily=RES2_7,status=variable
new load.3001582853M1 bus1=RML1055172203.1.0,Phases=1,kv=0.127,kW=1.04384,pf=0.92,Vminpu=0.92,Vmaxpu=1.5,model=1,daily=RES2_7,status=variable
new load.3001582854M1 bus1=RML1055172189.2.0,Phases=1,kv=0.127,kW=2.18016,pf=0.92,Vminpu=0.92,Vmaxpu=1.5,model=1,daily=RES3_8,status=variable
new load.3001582855M1 bus1=RML1055172182.1.0,Phases=1,kv=0.127,kW=0.50328,pf=0.92,Vminpu=0.92,Vmaxpu=1.5,model=1,daily=RES1_7,status=variable
new load.3001582864M1 bus1=RML1055172161.2.0,Phases=1,kv=0.127,kW=0.35294,pf=0.92,Vminpu=0.92,Vmaxpu=1.5,model=1,daily=RES2_7,status=variable
new load.3001582866M1 bus1=RML1055172196.3.0,Phases=1,kv=0.127,kW=1.02882,pf=0.92,Vminpu=0.92,Vmaxpu=1.5,model=1,daily=RES2_7,status=variable
new load.3001582867M1 bus1=RML1055172210.1.0,Phases=1,kv=0.127,kW=0.66836,pf=0.92,Vminpu=0.92,Vmaxpu=1.5,model=1,daily=RES2_7,status=variable
new load.3001582868M1 bus1=RML1055172238.1.2.0,Phases=2,kv=0.22,kW=0.8561,pf=0.92,Vminpu=0.92,Vmaxpu=1.5,model=1,daily=RES2_7,status=variable
new load.3001582869M1 bus1=RML1055172245.2.0,Phases=1,kv=0.127,kW=2.7003,pf=0.92,Vminpu=0.92,Vmaxpu=1.5,model=1,daily=RES3_8,status=variable
new load.3001582870M1 bus1=RML1055172252.2.0,Phases=1,kv=0.127,kW=0.60076,pf=0.92,Vminpu=0.92,Vmaxpu=1.5,model=1,daily=RES2_7,status=variable
new load.3001582871M1 bus1=RML1055102861.1.2.0,Phases=2,kv=0.22,kW=0.73594,pf=0.92,Vminpu=0.92,Vmaxpu=1.5,model=1,daily=RES2_7,status=variable
new load.3001582876M1 bus1=RML1055172217.2.3.0,Phases=2,kv=0.22,kW=1.92562,pf=0.92,Vminpu=0.92,Vmaxpu=1.5,model=1,daily=RES3_8,status=variable
new load.3001582877M1 bus1=RML1055172224.1.2.0,Phases=2,kv=0.22,kW=1.37426,pf=0.92,Vminpu=0.92,Vmaxpu=1.5,model=1,daily=RES2_7,status=variable
new load.3001582879M1 bus1=RML1055205551.3.0,Phases=1,kv=0.127,kW=2.1359,pf=0.92,Vminpu=0.92,Vmaxpu=1.5,model=1,daily=RES3_8,status=variable
new load.3001582881M1 bus1=RML1055205803.1.2.0,Phases=2,kv=0.22,kW=2.19122,pf=0.92,Vminpu=0.92,Vmaxpu=1.5,model=1,daily=RES3_8,status=variable
new load.3001582883M1 bus1=RML1055205579.1.2.0,Phases=2,kv=0.22,kW=0.19958,pf=0.92,Vminpu=0.92,Vmaxpu=1.5,model=1,daily=RES1_7,status=variable
new load.3001582885M1 bus1=RML1055205761.1.2.3.0,Phases=3,kv=0.22,kW=2.68924,pf=0.92,Vminpu=0.92,Vmaxpu=1.5,model=1,daily=RES3_8,status=variable
new load.3001582886M1 bus1=RML1055205761.1.2.3.0,Phases=3,kv=0.22,kW=0.46856,pf=0.92,Vminpu=0.92,Vmaxpu=1.5,model=1,daily=RES1_7,status=variable
new load.3001582887M1 bus1=RML1055205600.1.2.0,Phases=2,kv=0.22,kW=3.4971,pf=0.92,Vminpu=0.92,Vmaxpu=1.5,model=1,daily=RES3_8,status=variable
new load.3001582888M1 bus1=RML1055205663.1.2.0,Phases=2,kv=0.22,kW=2.02522,pf=0.92,Vminpu=0.92,Vmaxpu=1.5,model=1,daily=RES3_8,status=variable
new load.3001582889M1 bus1=RML1055205642.1.3.0,Phases=2,kv=0.22,kW=0.75846,pf=0.92,Vminpu=0.92,Vmaxpu=1.5,model=1,daily=RES2_7,status=variable
new load.3001582890M1 bus1=RML1055205621.1.2.0,Phases=2,kv=0.22,kW=0.58138,pf=0.92,Vminpu=0.92,Vmaxpu=1.5,model=1,daily=RES1_7,status=variable
new load.3001582912M1 bus1=RML1055217031.1.3.0,Phases=2,kv=0.22,kW=1.77068,pf=0.92,Vminpu=0.92,Vmaxpu=1.5,model=1,daily=RES3_8,status=variable
new load.3001582913M1 bus1=RML1055217031.1.3.0,Phases=2,kv=0.22,kW=0.90114,pf=0.92,Vminpu=0.92,Vmaxpu=1.5,model=1,daily=RES2_7,status=variable
new load.3001582918M1 bus1=RML1054769549.1.2.0,Phases=2,kv=0.22,kW=2.1667,pf=0.92,Vminpu=0.92,Vmaxpu=1.5,model=1,daily=RES4_11,status=variable
new load.3001582919M1 bus1=RML1054769570.2.3.0,Phases=2,kv=0.22,kW=0.96874,pf=0.92,Vminpu=0.92,Vmaxpu=1.5,model=1,daily=RES2_7,status=variable
new load.3001582920M1 bus1=RML1054769563.1.2.0,Phases=2,kv=0.22,kW=0.73594,pf=0.92,Vminpu=0.92,Vmaxpu=1.5,model=1,daily=RES2_7,status=variable
new load.3001582921M1 bus1=RML1054769542.1.2.0,Phases=2,kv=0.22,kW=0.92368,pf=0.92,Vminpu=0.92,Vmaxpu=1.5,model=1,daily=RES2_7,status=variable
new load.3001582923M1 bus1=RML1054769500.2.3.0,Phases=2,kv=0.22,kW=0.47724,pf=0.92,Vminpu=0.92,Vmaxpu=1.5,model=1,daily=RES1_7,status=variable
new load.3001582924M1 bus1=RML1054769486.1.2.0,Phases=2,kv=0.22,kW=0.9462,pf=0.92,Vminpu=0.92,Vmaxpu=1.5,model=1,daily=RES2_7,status=variable
new load.3001582925M1 bus1=RML1054769612.1.0,Phases=1,kv=0.127,kW=0.00868,pf=0.92,Vminpu=0.92,Vmaxpu=1.5,model=1,daily=RES1_7,status=variable
new load.3001582926M1 bus1=RML1054769612.1.0,Phases=1,kv=0.127,kW=1.98096,pf=0.92,Vminpu=0.92,Vmaxpu=1.5,model=1,daily=RES3_8,status=variable
new load.3001582927M1 bus1=RML1054769514.1.0,Phases=1,kv=0.127,kW=0.46856,pf=0.92,Vminpu=0.92,Vmaxpu=1.5,model=1,daily=RES1_7,status=variable
new load.3001582928M1 bus1=RML1054769633.1.2.3.0,Phases=3,kv=0.22,kW=3.45284,pf=0.92,Vminpu=0.92,Vmaxpu=1.5,model=1,daily=RES3_8,status=variable
new load.3001582929M1 bus1=RML1054769633.1.2.3.0,Phases=3,kv=0.22,kW=0.78574,pf=0.92,Vminpu=0.92,Vmaxpu=1.5,model=1,daily=RES3_8,status=variable
new load.3001582932M1 bus1=RML1054843392.1.2.3.0,Phases=3,kv=0.22,kW=2.88844,pf=0.92,Vminpu=0.92,Vmaxpu=1.5,model=1,daily=RES3_8,status=variable
new load.3001582933M1 bus1=RML1054843392.1.2.3.0,Phases=3,kv=0.22,kW=1.93092,pf=0.92,Vminpu=0.92,Vmaxpu=1.5,model=1,daily=RES4_11,status=variable
new load.3001582934M1 bus1=RML1054843392.1.2.3.0,Phases=3,kv=0.22,kW=0.54068,pf=0.92,Vminpu=0.92,Vmaxpu=1.5,model=1,daily=RES2_7,status=variable
new load.3001582935M1 bus1=RML1054843371.1.2.0,Phases=2,kv=0.22,kW=1.21656,pf=0.92,Vminpu=0.92,Vmaxpu=1.5,model=1,daily=RES2_7,status=variable
new load.3001582942M1 bus1=RML1054851141.1.2.3.0,Phases=3,kv=0.22,kW=0.90866,pf=0.92,Vminpu=0.92,Vmaxpu=1.5,model=1,daily=RES2_7,status=variable
new load.3001582943M1 bus1=RML1054851141.1.2.3.0,Phases=3,kv=0.22,kW=0.40782,pf=0.92,Vminpu=0.92,Vmaxpu=1.5,model=1,daily=RES1_7,status=variable
new load.3001582944M1 bus1=RML1054851127.1.2.3.0,Phases=3,kv=0.22,kW=1.0964,pf=0.92,Vminpu=0.92,Vmaxpu=1.5,model=1,daily=RES2_7,status=variable
new load.3001582945M1 bus1=RML1054851127.1.2.3.0,Phases=3,kv=0.22,kW=0.72092,pf=0.92,Vminpu=0.92,Vmaxpu=1.5,model=1,daily=RES2_7,status=variable
new load.3001582949M1 bus1=RML1055217150.2.0,Phases=1,kv=0.127,kW=0.47724,pf=0.92,Vminpu=0.92,Vmaxpu=1.5,model=1,daily=RES1_7,status=variable
new load.3001582951M1 bus1=RML1055230961.1.0,Phases=1,kv=0.127,kW=0.7202,pf=0.92,Vminpu=0.92,Vmaxpu=1.5,model=1,daily=RES1_7,status=variable
new load.3001582952M1 bus1=RML1055230821.1.0,Phases=1,kv=0.127,kW=1.30038,pf=0.92,Vminpu=0.92,Vmaxpu=1.5,model=1,daily=COM1_12,status=variable
new load.3001582953M1 bus1=RML1055230814.1.0,Phases=1,kv=0.127,kW=0.91616,pf=0.92,Vminpu=0.92,Vmaxpu=1.5,model=1,daily=RES2_7,status=variable
new load.3001582954M1 bus1=RML1055230835.1.2.0,Phases=2,kv=0.22,kW=0.87862,pf=0.92,Vminpu=0.92,Vmaxpu=1.5,model=1,daily=RES2_7,status=variable
new load.3001582955M1 bus1=RML1055230828.1.2.3.0,Phases=3,kv=0.22,kW=0.3384,pf=0.92,Vminpu=0.92,Vmaxpu=1.5,model=1,daily=RES1_7,status=variable
new load.3001582956M1 bus1=RML1055230786.2.0,Phases=1,kv=0.127,kW=0.13884,pf=0.92,Vminpu=0.92,Vmaxpu=1.5,model=1,daily=RES1_7,status=variable
new load.3001582959M1 bus1=RML1055230975.1.0,Phases=1,kv=0.127,kW=0.74344,pf=0.92,Vminpu=0.92,Vmaxpu=1.5,model=1,daily=RES2_7,status=variable
new load.3001582961M1 bus1=RML1055200630.2.0,Phases=1,kv=0.127,kW=0.56402,pf=0.92,Vminpu=0.92,Vmaxpu=1.5,model=1,daily=RES1_7,status=variable
new load.3001582964M1 bus1=RML1055231066.1.2.0,Phases=2,kv=0.22,kW=0.91616,pf=0.92,Vminpu=0.92,Vmaxpu=1.5,model=1,daily=RES2_7,status=variable
new load.3001582965M1 bus1=RML1055231094.1.2.0,Phases=2,kv=0.22,kW=2.34616,pf=0.92,Vminpu=0.92,Vmaxpu=1.5,model=1,daily=RES3_8,status=variable
new load.3001582966M1 bus1=RML1054185791.2.3.0,Phases=2,kv=0.22,kW=0.91616,pf=0.92,Vminpu=0.92,Vmaxpu=1.5,model=1,daily=RES2_7,status=variable
new load.3001582967M1 bus1=RML1055231080.1.2.0,Phases=2,kv=0.22,kW=0.02604,pf=0.92,Vminpu=0.92,Vmaxpu=1.5,model=1,daily=RES1_7,status=variable
new load.3001582969M1 bus1=RML1055231073.1.2.0,Phases=2,kv=0.22,kW=2.74456,pf=0.92,Vminpu=0.92,Vmaxpu=1.5,model=1,daily=RES3_8,status=variable
new load.3001582978M1 bus1=RML1055233481.1.0,Phases=1,kv=0.127,kW=0.10412,pf=0.92,Vminpu=0.92,Vmaxpu=1.5,model=1,daily=RES1_7,status=variable
new load.3001582984M1 bus1=RML1055233551.1.2.0,Phases=2,kv=0.22,kW=0.06074,pf=0.92,Vminpu=0.92,Vmaxpu=1.5,model=1,daily=RES1_7,status=variable
new load.3001582985M1 bus1=RML1055233579.1.2.0,Phases=2,kv=0.22,kW=0.18774,pf=0.92,Vminpu=0.92,Vmaxpu=1.5,model=1,daily=RES2_7,status=variable
new load.3001582986M1 bus1=RML1055233572.2.0,Phases=1,kv=0.127,kW=2.44576,pf=0.92,Vminpu=0.92,Vmaxpu=1.5,model=1,daily=RES3_8,status=variable
new load.3001582988M1 bus1=RML1055233614.1.0,Phases=1,kv=0.127,kW=0.84858,pf=0.92,Vminpu=0.92,Vmaxpu=1.5,model=1,daily=RES2_7,status=variable
new load.3001582991M1 bus1=RML1055233768.1.2.0,Phases=2,kv=0.22,kW=3.51924,pf=0.92,Vminpu=0.92,Vmaxpu=1.5,model=1,daily=RES3_8,status=variable
new load.3001582993M1 bus1=RML1055233705.2.0,Phases=1,kv=0.127,kW=0.03754,pf=0.92,Vminpu=0.92,Vmaxpu=1.5,model=1,daily=RES2_7,status=variable
new load.3001582994M1 bus1=RML1055233537.1.2.0,Phases=2,kv=0.22,kW=0.54068,pf=0.92,Vminpu=0.92,Vmaxpu=1.5,model=1,daily=RES2_7,status=variable
new load.3001582997M1 bus1=RML1055233558.3.0,Phases=1,kv=0.127,kW=0.23428,pf=0.92,Vminpu=0.92,Vmaxpu=1.5,model=1,daily=RES1_7,status=variable
new load.3001582998M1 bus1=RML1055230758.3.0,Phases=1,kv=0.127,kW=0.3384,pf=0.92,Vminpu=0.92,Vmaxpu=1.5,model=1,daily=RES1_7,status=variable
new load.3001583003M1 bus1=RML1055233803.1.0,Phases=1,kv=0.127,kW=0.71152,pf=0.92,Vminpu=0.92,Vmaxpu=1.5,model=1,daily=RES1_7,status=variable
new load.3001583005M1 bus1=RML1055233831.1.0,Phases=1,kv=0.127,kW=0.80352,pf=0.92,Vminpu=0.92,Vmaxpu=1.5,model=1,daily=RES2_7,status=variable
new load.3001583014M1 bus1=RML1055198740.2.0,Phases=1,kv=0.127,kW=1.03238,pf=0.92,Vminpu=0.92,Vmaxpu=1.5,model=1,daily=RES4_11,status=variable
new load.3001583015M1 bus1=RML1055200665.3.0,Phases=1,kv=0.127,kW=0.15618,pf=0.92,Vminpu=0.92,Vmaxpu=1.5,model=1,daily=RES1_7,status=variable
new load.3001583017M1 bus1=RML1055200651.1.0,Phases=1,kv=0.127,kW=0.43386,pf=0.92,Vminpu=0.92,Vmaxpu=1.5,model=1,daily=RES1_7,status=variable
new load.3001583018M1 bus1=RML1055200658.1.2.3.0,Phases=3,kv=0.22,kW=0.06074,pf=0.92,Vminpu=0.92,Vmaxpu=1.5,model=1,daily=RES1_7,status=variable
new load.3001583019M1 bus1=RML1055200686.2.0,Phases=1,kv=0.127,kW=0.54666,pf=0.92,Vminpu=0.92,Vmaxpu=1.5,model=1,daily=RES1_7,status=variable
new load.3001583023M1 bus1=RML1055200917.1.2.3.0,Phases=3,kv=0.22,kW=0.66814,pf=0.92,Vminpu=0.92,Vmaxpu=1.5,model=1,daily=RES1_7,status=variable
new load.3001583024M1 bus1=RML1055200938.1.2.0,Phases=2,kv=0.22,kW=0.61578,pf=0.92,Vminpu=0.92,Vmaxpu=1.5,model=1,daily=RES2_7,status=variable
new load.3001583027M1 bus1=RML1055200553.1.2.3.0,Phases=3,kv=0.22,kW=1.3034,pf=0.92,Vminpu=0.92,Vmaxpu=1.5,model=1,daily=RES5_9,status=variable
new load.3001583028M1 bus1=RML1055200588.1.0,Phases=1,kv=0.127,kW=0.59326,pf=0.92,Vminpu=0.92,Vmaxpu=1.5,model=1,daily=RES2_7,status=variable
new load.3001583030M1 bus1=RML1055200609.1.2.0,Phases=2,kv=0.22,kW=0.6233,pf=0.92,Vminpu=0.92,Vmaxpu=1.5,model=1,daily=RES2_7,status=variable
new load.3001583031M1 bus1=RML1055198271.2.0,Phases=1,kv=0.127,kW=0.26032,pf=0.92,Vminpu=0.92,Vmaxpu=1.5,model=1,daily=RES1_7,status=variable
new load.3001583032M1 bus1=RML1055198257.3.0,Phases=1,kv=0.127,kW=1.2541,pf=0.92,Vminpu=0.92,Vmaxpu=1.5,model=1,daily=RES2_7,status=variable
new load.3001583033M1 bus1=RML1055198243.1.0,Phases=1,kv=0.127,kW=0.84858,pf=0.92,Vminpu=0.92,Vmaxpu=1.5,model=1,daily=RES2_7,status=variable
new load.3001583034M1 bus1=RML1055198278.1.2.0,Phases=2,kv=0.22,kW=1.38928,pf=0.92,Vminpu=0.92,Vmaxpu=1.5,model=1,daily=RES2_7,status=variable
new load.3001583035M1 bus1=RML1055198236.2.0,Phases=1,kv=0.127,kW=0.269,pf=0.92,Vminpu=0.92,Vmaxpu=1.5,model=1,daily=RES1_7,status=variable
new load.3001583036M1 bus1=RML1055198292.1.2.0,Phases=2,kv=0.22,kW=0.26032,pf=0.92,Vminpu=0.92,Vmaxpu=1.5,model=1,daily=RES1_7,status=variable
new load.3001583038M1 bus1=RML1055198285.1.2.3.0,Phases=3,kv=0.22,kW=0.13016,pf=0.92,Vminpu=0.92,Vmaxpu=1.5,model=1,daily=RES1_7,status=variable
new load.3001583041M1 bus1=RML1055233866.1.0,Phases=1,kv=0.127,kW=0.48592,pf=0.92,Vminpu=0.92,Vmaxpu=1.5,model=1,daily=RES1_7,status=variable
new load.3001583044M1 bus1=RML1055198537.2.0,Phases=1,kv=0.127,kW=0.39048,pf=0.92,Vminpu=0.92,Vmaxpu=1.5,model=1,daily=RES1_7,status=variable
new load.3001583047M1 bus1=RML1055198649.1.0,Phases=1,kv=0.127,kW=1.71536,pf=0.92,Vminpu=0.92,Vmaxpu=1.5,model=1,daily=RES3_8,status=variable
new load.3001583050M1 bus1=RML1055198621.2.0,Phases=1,kv=0.127,kW=0.66836,pf=0.92,Vminpu=0.92,Vmaxpu=1.5,model=1,daily=RES2_7,status=variable
new load.3001583052M1 bus1=RML1055198579.3.0,Phases=1,kv=0.127,kW=0.24296,pf=0.92,Vminpu=0.92,Vmaxpu=1.5,model=1,daily=RES1_7,status=variable
new load.3001583053M1 bus1=RML1055198572.2.0,Phases=1,kv=0.127,kW=0.06074,pf=0.92,Vminpu=0.92,Vmaxpu=1.5,model=1,daily=RES1_7,status=variable
new load.3001583054M1 bus1=RML1055198698.1.3.0,Phases=2,kv=0.22,kW=0.68338,pf=0.92,Vminpu=0.92,Vmaxpu=1.5,model=1,daily=RES2_7,status=variable
new load.3001583057M1 bus1=RML1055198677.1.0,Phases=1,kv=0.127,kW=0.03004,pf=0.92,Vminpu=0.92,Vmaxpu=1.5,model=1,daily=RES2_7,status=variable
new load.3001583062M1 bus1=RML1055210542.3.0,Phases=1,kv=0.127,kW=0.42518,pf=0.92,Vminpu=0.92,Vmaxpu=1.5,model=1,daily=RES1_7,status=variable
new load.3001583063M1 bus1=RML1055210535.3.0,Phases=1,kv=0.127,kW=2.9327,pf=0.92,Vminpu=0.92,Vmaxpu=1.5,model=1,daily=RES3_8,status=variable
...
